<?xml version="1.0" encoding="UTF-8"?>

<!-- generated on 2026-07-09T12:42:17.208134+05:30 by Eclipse SUMO netconvert 1.27.0
<netconvertConfiguration xmlns:xsi="http://www.w3.org/2001/XMLSchema-instance" xsi:noNamespaceSchemaLocation="http://sumo.dlr.de/xsd/netconvertConfiguration.xsd">

    <input>
        <node-files value="single_junction.nod.xml"/>
        <edge-files value="single_junction.edg.xml"/>
    </input>

    <output>
        <output-file value="single_junction.net.xml"/>
    </output>

    <tls_building>
        <tls.default-type value="static"/>
    </tls_building>

</netconvertConfiguration>
-->

<net version="1.20" junctionCornerDetail="5" limitTurnSpeed="5.50" xmlns:xsi="http://www.w3.org/2001/XMLSchema-instance" xsi:noNamespaceSchemaLocation="http://sumo.dlr.de/xsd/net_file.xsd">

    <location netOffset="0.00,100.00" convBoundary="0.00,0.00,200.00,200.00" origBoundary="0.00,-100.00,200.00,100.00" projParameter="!"/>

    <edge id=":E_0" function="internal">
        <lane id=":E_0_0" index="0" speed="3.65" length="4.67" shape="200.00,98.40 201.20,99.20 201.60,100.00 201.20,100.80 200.00,101.60"/>
    </edge>
    <edge id=":J_0" function="internal">
        <lane id=":J_0_0" index="0" speed="6.51" length="9.03" shape="98.40,107.20 98.05,104.75 97.00,103.00 95.25,101.95 92.80,101.60"/>
    </edge>
    <edge id=":J_1" function="internal">
        <lane id=":J_1_0" index="0" speed="13.90" length="14.40" shape="98.40,107.20 98.40,92.80"/>
    </edge>
    <edge id=":J_2" function="internal">
        <lane id=":J_2_0" index="0" speed="8.00" length="4.07" shape="98.40,107.20 98.95,103.35 99.04,103.20"/>
    </edge>
    <edge id=":J_3" function="internal">
        <lane id=":J_3_0" index="0" speed="3.65" length="1.44" shape="98.40,107.20 99.20,106.00"/>
    </edge>
    <edge id=":J_16" function="internal">
        <lane id=":J_16_0" index="0" speed="8.00" length="10.13" shape="99.04,103.20 100.60,100.60 103.35,98.95 107.20,98.40"/>
    </edge>
    <edge id=":J_17" function="internal">
        <lane id=":J_17_0" index="0" speed="3.65" length="3.23" shape="99.20,106.00 100.00,105.60 100.80,106.00 101.60,107.20"/>
    </edge>
    <edge id=":J_4" function="internal">
        <lane id=":J_4_0" index="0" speed="6.51" length="9.03" shape="107.20,101.60 104.75,101.95 103.00,103.00 101.95,104.75 101.60,107.20"/>
    </edge>
    <edge id=":J_5" function="internal">
        <lane id=":J_5_0" index="0" speed="13.90" length="14.40" shape="107.20,101.60 92.80,101.60"/>
    </edge>
    <edge id=":J_6" function="internal">
        <lane id=":J_6_0" index="0" speed="8.00" length="4.07" shape="107.20,101.60 103.35,101.05 103.20,100.96"/>
    </edge>
    <edge id=":J_7" function="internal">
        <lane id=":J_7_0" index="0" speed="3.65" length="1.44" shape="107.20,101.60 106.00,100.80"/>
    </edge>
    <edge id=":J_18" function="internal">
        <lane id=":J_18_0" index="0" speed="8.00" length="10.13" shape="103.20,100.96 100.60,99.40 98.95,96.65 98.40,92.80"/>
    </edge>
    <edge id=":J_19" function="internal">
        <lane id=":J_19_0" index="0" speed="3.65" length="3.23" shape="106.00,100.80 105.60,100.00 106.00,99.20 107.20,98.40"/>
    </edge>
    <edge id=":J_8" function="internal">
        <lane id=":J_8_0" index="0" speed="6.51" length="9.03" shape="101.60,92.80 101.95,95.25 103.00,97.00 104.75,98.05 107.20,98.40"/>
    </edge>
    <edge id=":J_9" function="internal">
        <lane id=":J_9_0" index="0" speed="13.90" length="14.40" shape="101.60,92.80 101.60,107.20"/>
    </edge>
    <edge id=":J_10" function="internal">
        <lane id=":J_10_0" index="0" speed="8.00" length="4.07" shape="101.60,92.80 101.05,96.65 100.96,96.80"/>
    </edge>
    <edge id=":J_11" function="internal">
        <lane id=":J_11_0" index="0" speed="3.65" length="1.44" shape="101.60,92.80 100.80,94.00"/>
    </edge>
    <edge id=":J_20" function="internal">
        <lane id=":J_20_0" index="0" speed="8.00" length="10.13" shape="100.96,96.80 99.40,99.40 96.65,101.05 92.80,101.60"/>
    </edge>
    <edge id=":J_21" function="internal">
        <lane id=":J_21_0" index="0" speed="3.65" length="3.23" shape="100.80,94.00 100.00,94.40 99.20,94.00 98.40,92.80"/>
    </edge>
    <edge id=":J_12" function="internal">
        <lane id=":J_12_0" index="0" speed="6.51" length="9.03" shape="92.80,98.40 95.25,98.05 97.00,97.00 98.05,95.25 98.40,92.80"/>
    </edge>
    <edge id=":J_13" function="internal">
        <lane id=":J_13_0" index="0" speed="13.90" length="14.40" shape="92.80,98.40 107.20,98.40"/>
    </edge>
    <edge id=":J_14" function="internal">
        <lane id=":J_14_0" index="0" speed="8.00" length="4.07" shape="92.80,98.40 96.65,98.95 96.80,99.04"/>
    </edge>
    <edge id=":J_15" function="internal">
        <lane id=":J_15_0" index="0" speed="3.65" length="1.44" shape="92.80,98.40 94.00,99.20"/>
    </edge>
    <edge id=":J_22" function="internal">
        <lane id=":J_22_0" index="0" speed="8.00" length="10.13" shape="96.80,99.04 99.40,100.60 101.05,103.35 101.60,107.20"/>
    </edge>
    <edge id=":J_23" function="internal">
        <lane id=":J_23_0" index="0" speed="3.65" length="3.23" shape="94.00,99.20 94.40,100.00 94.00,100.80 92.80,101.60"/>
    </edge>
    <edge id=":N_0" function="internal">
        <lane id=":N_0_0" index="0" speed="3.65" length="4.67" shape="101.60,200.00 100.80,201.20 100.00,201.60 99.20,201.20 98.40,200.00"/>
    </edge>
    <edge id=":S_0" function="internal">
        <lane id=":S_0_0" index="0" speed="3.65" length="4.67" shape="98.40,-0.00 99.20,-1.20 100.00,-1.60 100.80,-1.20 101.60,-0.00"/>
    </edge>
    <edge id=":W_0" function="internal">
        <lane id=":W_0_0" index="0" speed="3.65" length="4.67" shape="-0.00,101.60 -1.20,100.80 -1.60,100.00 -1.20,99.20 -0.00,98.40"/>
    </edge>

    <edge id="E_J" from="E" to="J" priority="1">
        <lane id="E_J_0" index="0" speed="13.90" length="92.80" shape="200.00,101.60 107.20,101.60"/>
    </edge>
    <edge id="J_E" from="J" to="E" priority="1">
        <lane id="J_E_0" index="0" speed="13.90" length="92.80" shape="107.20,98.40 200.00,98.40"/>
    </edge>
    <edge id="J_N" from="J" to="N" priority="1">
        <lane id="J_N_0" index="0" speed="13.90" length="92.80" shape="101.60,107.20 101.60,200.00"/>
    </edge>
    <edge id="J_S" from="J" to="S" priority="1">
        <lane id="J_S_0" index="0" speed="13.90" length="92.80" shape="98.40,92.80 98.40,-0.00"/>
    </edge>
    <edge id="J_W" from="J" to="W" priority="1">
        <lane id="J_W_0" index="0" speed="13.90" length="92.80" shape="92.80,101.60 -0.00,101.60"/>
    </edge>
    <edge id="N_J" from="N" to="J" priority="1">
        <lane id="N_J_0" index="0" speed="13.90" length="92.80" shape="98.40,200.00 98.40,107.20"/>
    </edge>
    <edge id="S_J" from="S" to="J" priority="1">
        <lane id="S_J_0" index="0" speed="13.90" length="92.80" shape="101.60,-0.00 101.60,92.80"/>
    </edge>
    <edge id="W_J" from="W" to="J" priority="1">
        <lane id="W_J_0" index="0" speed="13.90" length="92.80" shape="-0.00,98.40 92.80,98.40"/>
    </edge>

    <tlLogic id="J" type="static" programID="0" offset="0">
        <phase duration="42" state="GGggrrrrGGggrrrr"/>
        <phase duration="3"  state="yyyyrrrryyyyrrrr"/>
        <phase duration="42" state="rrrrGGggrrrrGGgg"/>
        <phase duration="3"  state="rrrryyyyrrrryyyy"/>
    </tlLogic>

    <junction id="E" type="priority" x="200.00" y="100.00" incLanes="J_E_0" intLanes=":E_0_0" shape="200.00,100.00 200.00,96.80 200.00,100.00">
        <request index="0" response="0" foes="0" cont="0"/>
    </junction>
    <junction id="J" type="traffic_light" x="100.00" y="100.00" incLanes="N_J_0 E_J_0 S_J_0 W_J_0" intLanes=":J_0_0 :J_1_0 :J_16_0 :J_17_0 :J_4_0 :J_5_0 :J_18_0 :J_19_0 :J_8_0 :J_9_0 :J_20_0 :J_21_0 :J_12_0 :J_13_0 :J_22_0 :J_23_0" shape="96.80,107.20 103.20,107.20 103.64,104.98 104.20,104.20 104.98,103.64 105.98,103.31 107.20,103.20 107.20,96.80 104.98,96.36 104.20,95.80 103.64,95.02 103.31,94.02 103.20,92.80 96.80,92.80 96.36,95.02 95.80,95.80 95.02,96.36 94.02,96.69 92.80,96.80 92.80,103.20 95.02,103.64 95.80,104.20 96.36,104.98 96.69,105.98">
        <request index="0"  response="0000000000000000" foes="1000010000100000" cont="0"/>
        <request index="1"  response="0100000001000000" foes="0111110001100000" cont="0"/>
        <request index="2"  response="0100011101000000" foes="0110011111100000" cont="1"/>
        <request index="3"  response="0100001000010000" foes="0100001000010000" cont="1"/>
        <request index="4"  response="0000001000000000" foes="0100001000001000" cont="0"/>
        <request index="5"  response="0000011000000111" foes="1100011000000111" cont="0"/>
        <request index="6"  response="0111011000000110" foes="0111111000000110" cont="1"/>
        <request index="7"  response="0010000100000100" foes="0010000100000100" cont="1"/>
        <request index="8"  response="0000000000000000" foes="0010000010000100" cont="0"/>
        <request index="9"  response="0100000001000000" foes="0110000001111100" cont="0"/>
        <request index="10" response="0100000001000011" foes="1110000001100111" cont="1"/>
        <request index="11" response="0001000001000010" foes="0001000001000010" cont="1"/>
        <request index="12" response="0000000000000010" foes="0000100001000010" cont="0"/>
        <request index="13" response="0000011100000110" foes="0000011111000110" cont="0"/>
        <request index="14" response="0000011000110110" foes="0000011001111110" cont="1"/>
        <request index="15" response="0000010000100001" foes="0000010000100001" cont="1"/>
    </junction>
    <junction id="N" type="priority" x="100.00" y="200.00" incLanes="J_N_0" intLanes=":N_0_0" shape="100.00,200.00 103.20,200.00 100.00,200.00">
        <request index="0" response="0" foes="0" cont="0"/>
    </junction>
    <junction id="S" type="priority" x="100.00" y="0.00" incLanes="J_S_0" intLanes=":S_0_0" shape="100.00,-0.00 96.80,-0.00 100.00,-0.00">
        <request index="0" response="0" foes="0" cont="0"/>
    </junction>
    <junction id="W" type="priority" x="0.00" y="100.00" incLanes="J_W_0" intLanes=":W_0_0" shape="-0.00,100.00 -0.00,103.20 -0.00,100.00">
        <request index="0" response="0" foes="0" cont="0"/>
    </junction>

    <junction id=":J_16_0" type="internal" x="99.04" y="103.20" incLanes=":J_2_0 S_J_0" intLanes=":J_5_0 :J_6_0 :J_7_0 :J_8_0 :J_9_0 :J_13_0 :J_14_0"/>
    <junction id=":J_17_0" type="internal" x="99.20" y="106.00" incLanes=":J_3_0 E_J_0 S_J_0 W_J_0" intLanes=":J_4_0 :J_9_0 :J_14_0"/>
    <junction id=":J_18_0" type="internal" x="103.20" y="100.96" incLanes=":J_6_0 W_J_0" intLanes=":J_1_0 :J_2_0 :J_9_0 :J_10_0 :J_11_0 :J_12_0 :J_13_0"/>
    <junction id=":J_19_0" type="internal" x="106.00" y="100.80" incLanes=":J_7_0 N_J_0 S_J_0 W_J_0" intLanes=":J_2_0 :J_8_0 :J_13_0"/>
    <junction id=":J_20_0" type="internal" x="100.96" y="96.80" incLanes=":J_10_0 N_J_0" intLanes=":J_0_0 :J_1_0 :J_5_0 :J_6_0 :J_13_0 :J_14_0 :J_15_0"/>
    <junction id=":J_21_0" type="internal" x="100.80" y="94.00" incLanes=":J_11_0 E_J_0 N_J_0 W_J_0" intLanes=":J_1_0 :J_6_0 :J_12_0"/>
    <junction id=":J_22_0" type="internal" x="96.80" y="99.04" incLanes=":J_14_0 E_J_0" intLanes=":J_1_0 :J_2_0 :J_3_0 :J_4_0 :J_5_0 :J_9_0 :J_10_0"/>
    <junction id=":J_23_0" type="internal" x="94.00" y="99.20" incLanes=":J_15_0 E_J_0 N_J_0 S_J_0" intLanes=":J_0_0 :J_5_0 :J_10_0"/>

    <connection from="E_J" to="J_N" fromLane="0" toLane="0" via=":J_4_0" tl="J" linkIndex="4" dir="r" state="o"/>
    <connection from="E_J" to="J_W" fromLane="0" toLane="0" via=":J_5_0" tl="J" linkIndex="5" dir="s" state="o"/>
    <connection from="E_J" to="J_S" fromLane="0" toLane="0" via=":J_6_0" tl="J" linkIndex="6" dir="l" state="o"/>
    <connection from="E_J" to="J_E" fromLane="0" toLane="0" via=":J_7_0" tl="J" linkIndex="7" dir="t" state="o"/>
    <connection from="J_E" to="E_J" fromLane="0" toLane="0" via=":E_0_0" dir="t" state="M"/>
    <connection from="J_N" to="N_J" fromLane="0" toLane="0" via=":N_0_0" dir="t" state="M"/>
    <connection from="J_S" to="S_J" fromLane="0" toLane="0" via=":S_0_0" dir="t" state="M"/>
    <connection from="J_W" to="W_J" fromLane="0" toLane="0" via=":W_0_0" dir="t" state="M"/>
    <connection from="N_J" to="J_W" fromLane="0" toLane="0" via=":J_0_0" tl="J" linkIndex="0" dir="r" state="O"/>
    <connection from="N_J" to="J_S" fromLane="0" toLane="0" via=":J_1_0" tl="J" linkIndex="1" dir="s" state="O"/>
    <connection from="N_J" to="J_E" fromLane="0" toLane="0" via=":J_2_0" tl="J" linkIndex="2" dir="l" state="o"/>
    <connection from="N_J" to="J_N" fromLane="0" toLane="0" via=":J_3_0" tl="J" linkIndex="3" dir="t" state="o"/>
    <connection from="S_J" to="J_E" fromLane="0" toLane="0" via=":J_8_0" tl="J" linkIndex="8" dir="r" state="O"/>
    <connection from="S_J" to="J_N" fromLane="0" toLane="0" via=":J_9_0" tl="J" linkIndex="9" dir="s" state="O"/>
    <connection from="S_J" to="J_W" fromLane="0" toLane="0" via=":J_10_0" tl="J" linkIndex="10" dir="l" state="o"/>
    <connection from="S_J" to="J_S" fromLane="0" toLane="0" via=":J_11_0" tl="J" linkIndex="11" dir="t" state="o"/>
    <connection from="W_J" to="J_S" fromLane="0" toLane="0" via=":J_12_0" tl="J" linkIndex="12" dir="r" state="o"/>
    <connection from="W_J" to="J_E" fromLane="0" toLane="0" via=":J_13_0" tl="J" linkIndex="13" dir="s" state="o"/>
    <connection from="W_J" to="J_N" fromLane="0" toLane="0" via=":J_14_0" tl="J" linkIndex="14" dir="l" state="o"/>
    <connection from="W_J" to="J_W" fromLane="0" toLane="0" via=":J_15_0" tl="J" linkIndex="15" dir="t" state="o"/>

    <connection from=":E_0" to="E_J" fromLane="0" toLane="0" dir="t" state="M"/>
    <connection from=":J_0" to="J_W" fromLane="0" toLane="0" dir="r" state="M"/>
    <connection from=":J_1" to="J_S" fromLane="0" toLane="0" dir="s" state="M"/>
    <connection from=":J_2" to="J_E" fromLane="0" toLane="0" via=":J_16_0" dir="l" state="m"/>
    <connection from=":J_16" to="J_E" fromLane="0" toLane="0" dir="l" state="M"/>
    <connection from=":J_3" to="J_N" fromLane="0" toLane="0" via=":J_17_0" dir="t" state="m"/>
    <connection from=":J_17" to="J_N" fromLane="0" toLane="0" dir="t" state="M"/>
    <connection from=":J_4" to="J_N" fromLane="0" toLane="0" dir="r" state="M"/>
    <connection from=":J_5" to="J_W" fromLane="0" toLane="0" dir="s" state="M"/>
    <connection from=":J_6" to="J_S" fromLane="0" toLane="0" via=":J_18_0" dir="l" state="m"/>
    <connection from=":J_18" to="J_S" fromLane="0" toLane="0" dir="l" state="M"/>
    <connection from=":J_7" to="J_E" fromLane="0" toLane="0" via=":J_19_0" dir="t" state="m"/>
    <connection from=":J_19" to="J_E" fromLane="0" toLane="0" dir="t" state="M"/>
    <connection from=":J_8" to="J_E" fromLane="0" toLane="0" dir="r" state="M"/>
    <connection from=":J_9" to="J_N" fromLane="0" toLane="0" dir="s" state="M"/>
    <connection from=":J_10" to="J_W" fromLane="0" toLane="0" via=":J_20_0" dir="l" state="m"/>
    <connection from=":J_20" to="J_W" fromLane="0" toLane="0" dir="l" state="M"/>
    <connection from=":J_11" to="J_S" fromLane="0" toLane="0" via=":J_21_0" dir="t" state="m"/>
    <connection from=":J_21" to="J_S" fromLane="0" toLane="0" dir="t" state="M"/>
    <connection from=":J_12" to="J_S" fromLane="0" toLane="0" dir="r" state="M"/>
    <connection from=":J_13" to="J_E" fromLane="0" toLane="0" dir="s" state="M"/>
    <connection from=":J_14" to="J_N" fromLane="0" toLane="0" via=":J_22_0" dir="l" state="m"/>
    <connection from=":J_22" to="J_N" fromLane="0" toLane="0" dir="l" state="M"/>
    <connection from=":J_15" to="J_W" fromLane="0" toLane="0" via=":J_23_0" dir="t" state="m"/>
    <connection from=":J_23" to="J_W" fromLane="0" toLane="0" dir="t" state="M"/>
    <connection from=":N_0" to="N_J" fromLane="0" toLane="0" dir="t" state="M"/>
    <connection from=":S_0" to="S_J" fromLane="0" toLane="0" dir="t" state="M"/>
    <connection from=":W_0" to="W_J" fromLane="0" toLane="0" dir="t" state="M"/>

</net>
