<?xml version="1.0" encoding="UTF-8"?>
<nodes>
    <node id="W" x="0" y="0" type="priority"/>
    <node id="J1" x="100" y="0" type="traffic_light"/>
    <node id="J2" x="200" y="0" type="traffic_light"/>
    <node id="E" x="300" y="0" type="priority"/>

    <node id="N1" x="100" y="100" type="priority"/>
    <node id="S1" x="100" y="-100" type="priority"/>

    <node id="N2" x="200" y="100" type="priority"/>
    <node id="S2" x="200" y="-100" type="priority"/>
</nodes>










