<?xml version="1.0" encoding="UTF-8"?>
<routes>
    <vType id="car" accel="2.6" decel="4.5" length="5" maxSpeed="13.9"/>

    <route id="r0" edges="W_J1 J1_J2 J2_E"/>

    <route id="r1" edges="E_J2 J2_J1 J1_W"/>

    <route id="r2" edges="N1_J1 J1_S1"/>

    <route id="r3" edges="S1_J1 J1_N1"/>

    <route id="r4" edges="N2_J2 J2_S2"/>

    <route id="r5" edges="S2_J2 J2_N2"/>
 
    <!--Generate Vehicle-->
    <flow id="f0" route="r0" begin="0" end="1000" probability="0.2"/>
    <flow id="f1" route="r1" begin="0" end="1000" probability="0.2"/>
    <flow id="f2" route="r2" begin="0" end="1000" probability="0.15"/>
    <flow id="f3" route="r3" begin="0" end="1000" probability="0.15"/>
    <flow id="f4" route="r4" begin="0" end="1000" probability="0.15"/>
    <flow id="f5" route="r5" begin="0" end="1000" probability="0.15"/>

</routes>    