<?xml version="1.0" encoding="UTF-8"?>

<!-- generated on 2026-06-17T13:25:25.384270+05:30 by Eclipse SUMO netconvert 1.27.0
<netconvertConfiguration xmlns:xsi="http://www.w3.org/2001/XMLSchema-instance" xsi:noNamespaceSchemaLocation="http://sumo.dlr.de/xsd/netconvertConfiguration.xsd">

    <input>
        <node-files value="network.nod.xml"/>
        <edge-files value="network.edg.xml"/>
    </input>

    <output>
        <output-file value="network.net.xml"/>
    </output>

</netconvertConfiguration>
-->

<net version="1.20" junctionCornerDetail="5" limitTurnSpeed="5.50" xmlns:xsi="http://www.w3.org/2001/XMLSchema-instance" xsi:noNamespaceSchemaLocation="http://sumo.dlr.de/xsd/net_file.xsd">

    <location netOffset="0.00,100.00" convBoundary="0.00,0.00,300.00,200.00" origBoundary="0.00,-100.00,300.00,100.00" projParameter="!"/>

    <edge id=":E_0" function="internal">
        <lane id=":E_0_0" index="0" speed="3.65" length="4.67" shape="300.00,98.40 301.20,99.20 301.60,100.00 301.20,100.80 300.00,101.60"/>
    </edge>
    <edge id=":J1_0" function="internal">
        <lane id=":J1_0_0" index="0" speed="6.51" length="9.03" shape="98.40,107.20 98.05,104.75 97.00,103.00 95.25,101.95 92.80,101.60"/>
    </edge>
    <edge id=":J1_1" function="internal">
        <lane id=":J1_1_0" index="0" speed="13.90" length="14.40" shape="98.40,107.20 98.40,92.80"/>
    </edge>
    <edge id=":J1_2" function="internal">
        <lane id=":J1_2_0" index="0" speed="8.00" length="4.07" shape="98.40,107.20 98.95,103.35 99.04,103.20"/>
    </edge>
    <edge id=":J1_3" function="internal">
        <lane id=":J1_3_0" index="0" speed="3.65" length="1.44" shape="98.40,107.20 99.20,106.00"/>
    </edge>
    <edge id=":J1_16" function="internal">
        <lane id=":J1_16_0" index="0" speed="8.00" length="10.13" shape="99.04,103.20 100.60,100.60 103.35,98.95 107.20,98.40"/>
    </edge>
    <edge id=":J1_17" function="internal">
        <lane id=":J1_17_0" index="0" speed="3.65" length="3.23" shape="99.20,106.00 100.00,105.60 100.80,106.00 101.60,107.20"/>
    </edge>
    <edge id=":J1_4" function="internal">
        <lane id=":J1_4_0" index="0" speed="6.51" length="9.03" shape="107.20,101.60 104.75,101.95 103.00,103.00 101.95,104.75 101.60,107.20"/>
    </edge>
    <edge id=":J1_5" function="internal">
        <lane id=":J1_5_0" index="0" speed="13.90" length="14.40" shape="107.20,101.60 92.80,101.60"/>
    </edge>
    <edge id=":J1_6" function="internal">
        <lane id=":J1_6_0" index="0" speed="8.00" length="4.07" shape="107.20,101.60 103.35,101.05 103.20,100.96"/>
    </edge>
    <edge id=":J1_7" function="internal">
        <lane id=":J1_7_0" index="0" speed="3.65" length="1.44" shape="107.20,101.60 106.00,100.80"/>
    </edge>
    <edge id=":J1_18" function="internal">
        <lane id=":J1_18_0" index="0" speed="8.00" length="10.13" shape="103.20,100.96 100.60,99.40 98.95,96.65 98.40,92.80"/>
    </edge>
    <edge id=":J1_19" function="internal">
        <lane id=":J1_19_0" index="0" speed="3.65" length="3.23" shape="106.00,100.80 105.60,100.00 106.00,99.20 107.20,98.40"/>
    </edge>
    <edge id=":J1_8" function="internal">
        <lane id=":J1_8_0" index="0" speed="6.51" length="9.03" shape="101.60,92.80 101.95,95.25 103.00,97.00 104.75,98.05 107.20,98.40"/>
    </edge>
    <edge id=":J1_9" function="internal">
        <lane id=":J1_9_0" index="0" speed="13.90" length="14.40" shape="101.60,92.80 101.60,107.20"/>
    </edge>
    <edge id=":J1_10" function="internal">
        <lane id=":J1_10_0" index="0" speed="8.00" length="4.07" shape="101.60,92.80 101.05,96.65 100.96,96.80"/>
    </edge>
    <edge id=":J1_11" function="internal">
        <lane id=":J1_11_0" index="0" speed="3.65" length="1.44" shape="101.60,92.80 100.80,94.00"/>
    </edge>
    <edge id=":J1_20" function="internal">
        <lane id=":J1_20_0" index="0" speed="8.00" length="10.13" shape="100.96,96.80 99.40,99.40 96.65,101.05 92.80,101.60"/>
    </edge>
    <edge id=":J1_21" function="internal">
        <lane id=":J1_21_0" index="0" speed="3.65" length="3.23" shape="100.80,94.00 100.00,94.40 99.20,94.00 98.40,92.80"/>
    </edge>
    <edge id=":J1_12" function="internal">
        <lane id=":J1_12_0" index="0" speed="6.51" length="9.03" shape="92.80,98.40 95.25,98.05 97.00,97.00 98.05,95.25 98.40,92.80"/>
    </edge>
    <edge id=":J1_13" function="internal">
        <lane id=":J1_13_0" index="0" speed="13.90" length="14.40" shape="92.80,98.40 107.20,98.40"/>
    </edge>
    <edge id=":J1_14" function="internal">
        <lane id=":J1_14_0" index="0" speed="8.00" length="4.07" shape="92.80,98.40 96.65,98.95 96.80,99.04"/>
    </edge>
    <edge id=":J1_15" function="internal">
        <lane id=":J1_15_0" index="0" speed="3.65" length="1.44" shape="92.80,98.40 94.00,99.20"/>
    </edge>
    <edge id=":J1_22" function="internal">
        <lane id=":J1_22_0" index="0" speed="8.00" length="10.13" shape="96.80,99.04 99.40,100.60 101.05,103.35 101.60,107.20"/>
    </edge>
    <edge id=":J1_23" function="internal">
        <lane id=":J1_23_0" index="0" speed="3.65" length="3.23" shape="94.00,99.20 94.40,100.00 94.00,100.80 92.80,101.60"/>
    </edge>
    <edge id=":J2_0" function="internal">
        <lane id=":J2_0_0" index="0" speed="6.51" length="9.03" shape="198.40,107.20 198.05,104.75 197.00,103.00 195.25,101.95 192.80,101.60"/>
    </edge>
    <edge id=":J2_1" function="internal">
        <lane id=":J2_1_0" index="0" speed="13.90" length="14.40" shape="198.40,107.20 198.40,92.80"/>
    </edge>
    <edge id=":J2_2" function="internal">
        <lane id=":J2_2_0" index="0" speed="8.00" length="4.07" shape="198.40,107.20 198.95,103.35 199.04,103.20"/>
    </edge>
    <edge id=":J2_3" function="internal">
        <lane id=":J2_3_0" index="0" speed="3.65" length="1.44" shape="198.40,107.20 199.20,106.00"/>
    </edge>
    <edge id=":J2_16" function="internal">
        <lane id=":J2_16_0" index="0" speed="8.00" length="10.13" shape="199.04,103.20 200.60,100.60 203.35,98.95 207.20,98.40"/>
    </edge>
    <edge id=":J2_17" function="internal">
        <lane id=":J2_17_0" index="0" speed="3.65" length="3.23" shape="199.20,106.00 200.00,105.60 200.80,106.00 201.60,107.20"/>
    </edge>
    <edge id=":J2_4" function="internal">
        <lane id=":J2_4_0" index="0" speed="6.51" length="9.03" shape="207.20,101.60 204.75,101.95 203.00,103.00 201.95,104.75 201.60,107.20"/>
    </edge>
    <edge id=":J2_5" function="internal">
        <lane id=":J2_5_0" index="0" speed="13.90" length="14.40" shape="207.20,101.60 192.80,101.60"/>
    </edge>
    <edge id=":J2_6" function="internal">
        <lane id=":J2_6_0" index="0" speed="8.00" length="4.07" shape="207.20,101.60 203.35,101.05 203.20,100.96"/>
    </edge>
    <edge id=":J2_7" function="internal">
        <lane id=":J2_7_0" index="0" speed="3.65" length="1.44" shape="207.20,101.60 206.00,100.80"/>
    </edge>
    <edge id=":J2_18" function="internal">
        <lane id=":J2_18_0" index="0" speed="8.00" length="10.13" shape="203.20,100.96 200.60,99.40 198.95,96.65 198.40,92.80"/>
    </edge>
    <edge id=":J2_19" function="internal">
        <lane id=":J2_19_0" index="0" speed="3.65" length="3.23" shape="206.00,100.80 205.60,100.00 206.00,99.20 207.20,98.40"/>
    </edge>
    <edge id=":J2_8" function="internal">
        <lane id=":J2_8_0" index="0" speed="6.51" length="9.03" shape="201.60,92.80 201.95,95.25 203.00,97.00 204.75,98.05 207.20,98.40"/>
    </edge>
    <edge id=":J2_9" function="internal">
        <lane id=":J2_9_0" index="0" speed="13.90" length="14.40" shape="201.60,92.80 201.60,107.20"/>
    </edge>
    <edge id=":J2_10" function="internal">
        <lane id=":J2_10_0" index="0" speed="8.00" length="4.07" shape="201.60,92.80 201.05,96.65 200.96,96.80"/>
    </edge>
    <edge id=":J2_11" function="internal">
        <lane id=":J2_11_0" index="0" speed="3.65" length="1.44" shape="201.60,92.80 200.80,94.00"/>
    </edge>
    <edge id=":J2_20" function="internal">
        <lane id=":J2_20_0" index="0" speed="8.00" length="10.13" shape="200.96,96.80 199.40,99.40 196.65,101.05 192.80,101.60"/>
    </edge>
    <edge id=":J2_21" function="internal">
        <lane id=":J2_21_0" index="0" speed="3.65" length="3.23" shape="200.80,94.00 200.00,94.40 199.20,94.00 198.40,92.80"/>
    </edge>
    <edge id=":J2_12" function="internal">
        <lane id=":J2_12_0" index="0" speed="6.51" length="9.03" shape="192.80,98.40 195.25,98.05 197.00,97.00 198.05,95.25 198.40,92.80"/>
    </edge>
    <edge id=":J2_13" function="internal">
        <lane id=":J2_13_0" index="0" speed="13.90" length="14.40" shape="192.80,98.40 207.20,98.40"/>
    </edge>
    <edge id=":J2_14" function="internal">
        <lane id=":J2_14_0" index="0" speed="8.00" length="4.07" shape="192.80,98.40 196.65,98.95 196.80,99.04"/>
    </edge>
    <edge id=":J2_15" function="internal">
        <lane id=":J2_15_0" index="0" speed="3.65" length="1.44" shape="192.80,98.40 194.00,99.20"/>
    </edge>
    <edge id=":J2_22" function="internal">
        <lane id=":J2_22_0" index="0" speed="8.00" length="10.13" shape="196.80,99.04 199.40,100.60 201.05,103.35 201.60,107.20"/>
    </edge>
    <edge id=":J2_23" function="internal">
        <lane id=":J2_23_0" index="0" speed="3.65" length="3.23" shape="194.00,99.20 194.40,100.00 194.00,100.80 192.80,101.60"/>
    </edge>
    <edge id=":N1_0" function="internal">
        <lane id=":N1_0_0" index="0" speed="3.65" length="4.67" shape="101.60,200.00 100.80,201.20 100.00,201.60 99.20,201.20 98.40,200.00"/>
    </edge>
    <edge id=":N2_0" function="internal">
        <lane id=":N2_0_0" index="0" speed="3.65" length="4.67" shape="201.60,200.00 200.80,201.20 200.00,201.60 199.20,201.20 198.40,200.00"/>
    </edge>
    <edge id=":S1_0" function="internal">
        <lane id=":S1_0_0" index="0" speed="3.65" length="4.67" shape="98.40,0.00 99.20,-1.20 100.00,-1.60 100.80,-1.20 101.60,0.00"/>
    </edge>
    <edge id=":S2_0" function="internal">
        <lane id=":S2_0_0" index="0" speed="3.65" length="4.67" shape="198.40,0.00 199.20,-1.20 200.00,-1.60 200.80,-1.20 201.60,0.00"/>
    </edge>
    <edge id=":W_0" function="internal">
        <lane id=":W_0_0" index="0" speed="3.65" length="4.67" shape="0.00,101.60 -1.20,100.80 -1.60,100.00 -1.20,99.20 0.00,98.40"/>
    </edge>

    <edge id="E_J2" from="E" to="J2" priority="-1">
        <lane id="E_J2_0" index="0" speed="13.90" length="92.80" shape="300.00,101.60 207.20,101.60"/>
    </edge>
    <edge id="J1_J2" from="J1" to="J2" priority="-1">
        <lane id="J1_J2_0" index="0" speed="13.90" length="85.60" shape="107.20,98.40 192.80,98.40"/>
    </edge>
    <edge id="J1_N1" from="J1" to="N1" priority="-1">
        <lane id="J1_N1_0" index="0" speed="13.90" length="92.80" shape="101.60,107.20 101.60,200.00"/>
    </edge>
    <edge id="J1_S1" from="J1" to="S1" priority="-1">
        <lane id="J1_S1_0" index="0" speed="13.90" length="92.80" shape="98.40,92.80 98.40,0.00"/>
    </edge>
    <edge id="J1_W" from="J1" to="W" priority="-1">
        <lane id="J1_W_0" index="0" speed="13.90" length="92.80" shape="92.80,101.60 0.00,101.60"/>
    </edge>
    <edge id="J2_E" from="J2" to="E" priority="-1">
        <lane id="J2_E_0" index="0" speed="13.90" length="92.80" shape="207.20,98.40 300.00,98.40"/>
    </edge>
    <edge id="J2_J1" from="J2" to="J1" priority="-1">
        <lane id="J2_J1_0" index="0" speed="13.90" length="85.60" shape="192.80,101.60 107.20,101.60"/>
    </edge>
    <edge id="J2_N2" from="J2" to="N2" priority="-1">
        <lane id="J2_N2_0" index="0" speed="13.90" length="92.80" shape="201.60,107.20 201.60,200.00"/>
    </edge>
    <edge id="J2_S2" from="J2" to="S2" priority="-1">
        <lane id="J2_S2_0" index="0" speed="13.90" length="92.80" shape="198.40,92.80 198.40,0.00"/>
    </edge>
    <edge id="N1_J1" from="N1" to="J1" priority="-1">
        <lane id="N1_J1_0" index="0" speed="13.90" length="92.80" shape="98.40,200.00 98.40,107.20"/>
    </edge>
    <edge id="N2_J2" from="N2" to="J2" priority="-1">
        <lane id="N2_J2_0" index="0" speed="13.90" length="92.80" shape="198.40,200.00 198.40,107.20"/>
    </edge>
    <edge id="S1_J1" from="S1" to="J1" priority="-1">
        <lane id="S1_J1_0" index="0" speed="13.90" length="92.80" shape="101.60,0.00 101.60,92.80"/>
    </edge>
    <edge id="S2_J2" from="S2" to="J2" priority="-1">
        <lane id="S2_J2_0" index="0" speed="13.90" length="92.80" shape="201.60,0.00 201.60,92.80"/>
    </edge>
    <edge id="W_J1" from="W" to="J1" priority="-1">
        <lane id="W_J1_0" index="0" speed="13.90" length="92.80" shape="0.00,98.40 92.80,98.40"/>
    </edge>

    <tlLogic id="J1" type="static" programID="0" offset="0">
        <phase duration="42" state="GGggrrrrGGggrrrr"/>
        <phase duration="3"  state="yyyyrrrryyyyrrrr"/>
        <phase duration="42" state="rrrrGGggrrrrGGgg"/>
        <phase duration="3"  state="rrrryyyyrrrryyyy"/>
    </tlLogic>
    <tlLogic id="J2" type="static" programID="0" offset="0">
        <phase duration="42" state="GGggrrrrGGggrrrr"/>
        <phase duration="3"  state="yyyyrrrryyyyrrrr"/>
        <phase duration="42" state="rrrrGGggrrrrGGgg"/>
        <phase duration="3"  state="rrrryyyyrrrryyyy"/>
    </tlLogic>

    <junction id="E" type="priority" x="300.00" y="100.00" incLanes="J2_E_0" intLanes=":E_0_0" shape="300.00,100.00 300.00,96.80 300.00,100.00">
        <request index="0" response="0" foes="0" cont="0"/>
    </junction>
    <junction id="J1" type="traffic_light" x="100.00" y="100.00" incLanes="N1_J1_0 J2_J1_0 S1_J1_0 W_J1_0" intLanes=":J1_0_0 :J1_1_0 :J1_16_0 :J1_17_0 :J1_4_0 :J1_5_0 :J1_18_0 :J1_19_0 :J1_8_0 :J1_9_0 :J1_20_0 :J1_21_0 :J1_12_0 :J1_13_0 :J1_22_0 :J1_23_0" shape="96.80,107.20 103.20,107.20 103.64,104.98 104.20,104.20 104.98,103.64 105.98,103.31 107.20,103.20 107.20,96.80 104.98,96.36 104.20,95.80 103.64,95.02 103.31,94.02 103.20,92.80 96.80,92.80 96.36,95.02 95.80,95.80 95.02,96.36 94.02,96.69 92.80,96.80 92.80,103.20 95.02,103.64 95.80,104.20 96.36,104.98 96.69,105.98">
        <request index="0"  response="0000000000000000" foes="1000010000100000" cont="0"/>
        <request index="1"  response="0100000001000000" foes="0111110001100000" cont="0"/>
        <request index="2"  response="0100011101000000" foes="0110011111100000" cont="1"/>
        <request index="3"  response="0100001000010000" foes="0100001000010000" cont="1"/>
        <request index="4"  response="0000001000000000" foes="0100001000001000" cont="0"/>
        <request index="5"  response="0000011000000111" foes="1100011000000111" cont="0"/>
        <request index="6"  response="0111011000000110" foes="0111111000000110" cont="1"/>
        <request index="7"  response="0010000100000100" foes="0010000100000100" cont="1"/>
        <request index="8"  response="0000000000000000" foes="0010000010000100" cont="0"/>
        <request index="9"  response="0100000001000000" foes="0110000001111100" cont="0"/>
        <request index="10" response="0100000001000011" foes="1110000001100111" cont="1"/>
        <request index="11" response="0001000001000010" foes="0001000001000010" cont="1"/>
        <request index="12" response="0000000000000010" foes="0000100001000010" cont="0"/>
        <request index="13" response="0000011100000110" foes="0000011111000110" cont="0"/>
        <request index="14" response="0000011000110110" foes="0000011001111110" cont="1"/>
        <request index="15" response="0000010000100001" foes="0000010000100001" cont="1"/>
    </junction>
    <junction id="J2" type="traffic_light" x="200.00" y="100.00" incLanes="N2_J2_0 E_J2_0 S2_J2_0 J1_J2_0" intLanes=":J2_0_0 :J2_1_0 :J2_16_0 :J2_17_0 :J2_4_0 :J2_5_0 :J2_18_0 :J2_19_0 :J2_8_0 :J2_9_0 :J2_20_0 :J2_21_0 :J2_12_0 :J2_13_0 :J2_22_0 :J2_23_0" shape="196.80,107.20 203.20,107.20 203.64,104.98 204.20,104.20 204.98,103.64 205.98,103.31 207.20,103.20 207.20,96.80 204.98,96.36 204.20,95.80 203.64,95.02 203.31,94.02 203.20,92.80 196.80,92.80 196.36,95.02 195.80,95.80 195.02,96.36 194.02,96.69 192.80,96.80 192.80,103.20 195.02,103.64 195.80,104.20 196.36,104.98 196.69,105.98">
        <request index="0"  response="0000000000000000" foes="1000010000100000" cont="0"/>
        <request index="1"  response="0100000001000000" foes="0111110001100000" cont="0"/>
        <request index="2"  response="0100011101000000" foes="0110011111100000" cont="1"/>
        <request index="3"  response="0100001000010000" foes="0100001000010000" cont="1"/>
        <request index="4"  response="0000001000000000" foes="0100001000001000" cont="0"/>
        <request index="5"  response="0000011000000111" foes="1100011000000111" cont="0"/>
        <request index="6"  response="0111011000000110" foes="0111111000000110" cont="1"/>
        <request index="7"  response="0010000100000100" foes="0010000100000100" cont="1"/>
        <request index="8"  response="0000000000000000" foes="0010000010000100" cont="0"/>
        <request index="9"  response="0100000001000000" foes="0110000001111100" cont="0"/>
        <request index="10" response="0100000001000011" foes="1110000001100111" cont="1"/>
        <request index="11" response="0001000001000010" foes="0001000001000010" cont="1"/>
        <request index="12" response="0000000000000010" foes="0000100001000010" cont="0"/>
        <request index="13" response="0000011100000110" foes="0000011111000110" cont="0"/>
        <request index="14" response="0000011000110110" foes="0000011001111110" cont="1"/>
        <request index="15" response="0000010000100001" foes="0000010000100001" cont="1"/>
    </junction>
    <junction id="N1" type="priority" x="100.00" y="200.00" incLanes="J1_N1_0" intLanes=":N1_0_0" shape="100.00,200.00 103.20,200.00 100.00,200.00">
        <request index="0" response="0" foes="0" cont="0"/>
    </junction>
    <junction id="N2" type="priority" x="200.00" y="200.00" incLanes="J2_N2_0" intLanes=":N2_0_0" shape="200.00,200.00 203.20,200.00 200.00,200.00">
        <request index="0" response="0" foes="0" cont="0"/>
    </junction>
    <junction id="S1" type="priority" x="100.00" y="0.00" incLanes="J1_S1_0" intLanes=":S1_0_0" shape="100.00,0.00 96.80,0.00 100.00,0.00">
        <request index="0" response="0" foes="0" cont="0"/>
    </junction>
    <junction id="S2" type="priority" x="200.00" y="0.00" incLanes="J2_S2_0" intLanes=":S2_0_0" shape="200.00,0.00 196.80,0.00 200.00,0.00">
        <request index="0" response="0" foes="0" cont="0"/>
    </junction>
    <junction id="W" type="priority" x="0.00" y="100.00" incLanes="J1_W_0" intLanes=":W_0_0" shape="0.00,100.00 0.00,103.20 0.00,100.00">
        <request index="0" response="0" foes="0" cont="0"/>
    </junction>

    <junction id=":J1_16_0" type="internal" x="99.04" y="103.20" incLanes=":J1_2_0 S1_J1_0" intLanes=":J1_5_0 :J1_6_0 :J1_7_0 :J1_8_0 :J1_9_0 :J1_13_0 :J1_14_0"/>
    <junction id=":J1_17_0" type="internal" x="99.20" y="106.00" incLanes=":J1_3_0 J2_J1_0 S1_J1_0 W_J1_0" intLanes=":J1_4_0 :J1_9_0 :J1_14_0"/>
    <junction id=":J1_18_0" type="internal" x="103.20" y="100.96" incLanes=":J1_6_0 W_J1_0" intLanes=":J1_1_0 :J1_2_0 :J1_9_0 :J1_10_0 :J1_11_0 :J1_12_0 :J1_13_0"/>
    <junction id=":J1_19_0" type="internal" x="106.00" y="100.80" incLanes=":J1_7_0 N1_J1_0 S1_J1_0 W_J1_0" intLanes=":J1_2_0 :J1_8_0 :J1_13_0"/>
    <junction id=":J1_20_0" type="internal" x="100.96" y="96.80" incLanes=":J1_10_0 N1_J1_0" intLanes=":J1_0_0 :J1_1_0 :J1_5_0 :J1_6_0 :J1_13_0 :J1_14_0 :J1_15_0"/>
    <junction id=":J1_21_0" type="internal" x="100.80" y="94.00" incLanes=":J1_11_0 J2_J1_0 N1_J1_0 W_J1_0" intLanes=":J1_1_0 :J1_6_0 :J1_12_0"/>
    <junction id=":J1_22_0" type="internal" x="96.80" y="99.04" incLanes=":J1_14_0 J2_J1_0" intLanes=":J1_1_0 :J1_2_0 :J1_3_0 :J1_4_0 :J1_5_0 :J1_9_0 :J1_10_0"/>
    <junction id=":J1_23_0" type="internal" x="94.00" y="99.20" incLanes=":J1_15_0 J2_J1_0 N1_J1_0 S1_J1_0" intLanes=":J1_0_0 :J1_5_0 :J1_10_0"/>
    <junction id=":J2_16_0" type="internal" x="199.04" y="103.20" incLanes=":J2_2_0 S2_J2_0" intLanes=":J2_5_0 :J2_6_0 :J2_7_0 :J2_8_0 :J2_9_0 :J2_13_0 :J2_14_0"/>
    <junction id=":J2_17_0" type="internal" x="199.20" y="106.00" incLanes=":J2_3_0 E_J2_0 J1_J2_0 S2_J2_0" intLanes=":J2_4_0 :J2_9_0 :J2_14_0"/>
    <junction id=":J2_18_0" type="internal" x="203.20" y="100.96" incLanes=":J2_6_0 J1_J2_0" intLanes=":J2_1_0 :J2_2_0 :J2_9_0 :J2_10_0 :J2_11_0 :J2_12_0 :J2_13_0"/>
    <junction id=":J2_19_0" type="internal" x="206.00" y="100.80" incLanes=":J2_7_0 J1_J2_0 N2_J2_0 S2_J2_0" intLanes=":J2_2_0 :J2_8_0 :J2_13_0"/>
    <junction id=":J2_20_0" type="internal" x="200.96" y="96.80" incLanes=":J2_10_0 N2_J2_0" intLanes=":J2_0_0 :J2_1_0 :J2_5_0 :J2_6_0 :J2_13_0 :J2_14_0 :J2_15_0"/>
    <junction id=":J2_21_0" type="internal" x="200.80" y="94.00" incLanes=":J2_11_0 E_J2_0 J1_J2_0 N2_J2_0" intLanes=":J2_1_0 :J2_6_0 :J2_12_0"/>
    <junction id=":J2_22_0" type="internal" x="196.80" y="99.04" incLanes=":J2_14_0 E_J2_0" intLanes=":J2_1_0 :J2_2_0 :J2_3_0 :J2_4_0 :J2_5_0 :J2_9_0 :J2_10_0"/>
    <junction id=":J2_23_0" type="internal" x="194.00" y="99.20" incLanes=":J2_15_0 E_J2_0 N2_J2_0 S2_J2_0" intLanes=":J2_0_0 :J2_5_0 :J2_10_0"/>

    <connection from="E_J2" to="J2_N2" fromLane="0" toLane="0" via=":J2_4_0" tl="J2" linkIndex="4" dir="r" state="o"/>
    <connection from="E_J2" to="J2_J1" fromLane="0" toLane="0" via=":J2_5_0" tl="J2" linkIndex="5" dir="s" state="o"/>
    <connection from="E_J2" to="J2_S2" fromLane="0" toLane="0" via=":J2_6_0" tl="J2" linkIndex="6" dir="l" state="o"/>
    <connection from="E_J2" to="J2_E" fromLane="0" toLane="0" via=":J2_7_0" tl="J2" linkIndex="7" dir="t" state="o"/>
    <connection from="J1_J2" to="J2_S2" fromLane="0" toLane="0" via=":J2_12_0" tl="J2" linkIndex="12" dir="r" state="o"/>
    <connection from="J1_J2" to="J2_E" fromLane="0" toLane="0" via=":J2_13_0" tl="J2" linkIndex="13" dir="s" state="o"/>
    <connection from="J1_J2" to="J2_N2" fromLane="0" toLane="0" via=":J2_14_0" tl="J2" linkIndex="14" dir="l" state="o"/>
    <connection from="J1_J2" to="J2_J1" fromLane="0" toLane="0" via=":J2_15_0" tl="J2" linkIndex="15" dir="t" state="o"/>
    <connection from="J1_N1" to="N1_J1" fromLane="0" toLane="0" via=":N1_0_0" dir="t" state="M"/>
    <connection from="J1_S1" to="S1_J1" fromLane="0" toLane="0" via=":S1_0_0" dir="t" state="M"/>
    <connection from="J1_W" to="W_J1" fromLane="0" toLane="0" via=":W_0_0" dir="t" state="M"/>
    <connection from="J2_E" to="E_J2" fromLane="0" toLane="0" via=":E_0_0" dir="t" state="M"/>
    <connection from="J2_J1" to="J1_N1" fromLane="0" toLane="0" via=":J1_4_0" tl="J1" linkIndex="4" dir="r" state="o"/>
    <connection from="J2_J1" to="J1_W" fromLane="0" toLane="0" via=":J1_5_0" tl="J1" linkIndex="5" dir="s" state="o"/>
    <connection from="J2_J1" to="J1_S1" fromLane="0" toLane="0" via=":J1_6_0" tl="J1" linkIndex="6" dir="l" state="o"/>
    <connection from="J2_J1" to="J1_J2" fromLane="0" toLane="0" via=":J1_7_0" tl="J1" linkIndex="7" dir="t" state="o"/>
    <connection from="J2_N2" to="N2_J2" fromLane="0" toLane="0" via=":N2_0_0" dir="t" state="M"/>
    <connection from="J2_S2" to="S2_J2" fromLane="0" toLane="0" via=":S2_0_0" dir="t" state="M"/>
    <connection from="N1_J1" to="J1_W" fromLane="0" toLane="0" via=":J1_0_0" tl="J1" linkIndex="0" dir="r" state="O"/>
    <connection from="N1_J1" to="J1_S1" fromLane="0" toLane="0" via=":J1_1_0" tl="J1" linkIndex="1" dir="s" state="O"/>
    <connection from="N1_J1" to="J1_J2" fromLane="0" toLane="0" via=":J1_2_0" tl="J1" linkIndex="2" dir="l" state="o"/>
    <connection from="N1_J1" to="J1_N1" fromLane="0" toLane="0" via=":J1_3_0" tl="J1" linkIndex="3" dir="t" state="o"/>
    <connection from="N2_J2" to="J2_J1" fromLane="0" toLane="0" via=":J2_0_0" tl="J2" linkIndex="0" dir="r" state="O"/>
    <connection from="N2_J2" to="J2_S2" fromLane="0" toLane="0" via=":J2_1_0" tl="J2" linkIndex="1" dir="s" state="O"/>
    <connection from="N2_J2" to="J2_E" fromLane="0" toLane="0" via=":J2_2_0" tl="J2" linkIndex="2" dir="l" state="o"/>
    <connection from="N2_J2" to="J2_N2" fromLane="0" toLane="0" via=":J2_3_0" tl="J2" linkIndex="3" dir="t" state="o"/>
    <connection from="S1_J1" to="J1_J2" fromLane="0" toLane="0" via=":J1_8_0" tl="J1" linkIndex="8" dir="r" state="O"/>
    <connection from="S1_J1" to="J1_N1" fromLane="0" toLane="0" via=":J1_9_0" tl="J1" linkIndex="9" dir="s" state="O"/>
    <connection from="S1_J1" to="J1_W" fromLane="0" toLane="0" via=":J1_10_0" tl="J1" linkIndex="10" dir="l" state="o"/>
    <connection from="S1_J1" to="J1_S1" fromLane="0" toLane="0" via=":J1_11_0" tl="J1" linkIndex="11" dir="t" state="o"/>
    <connection from="S2_J2" to="J2_E" fromLane="0" toLane="0" via=":J2_8_0" tl="J2" linkIndex="8" dir="r" state="O"/>
    <connection from="S2_J2" to="J2_N2" fromLane="0" toLane="0" via=":J2_9_0" tl="J2" linkIndex="9" dir="s" state="O"/>
    <connection from="S2_J2" to="J2_J1" fromLane="0" toLane="0" via=":J2_10_0" tl="J2" linkIndex="10" dir="l" state="o"/>
    <connection from="S2_J2" to="J2_S2" fromLane="0" toLane="0" via=":J2_11_0" tl="J2" linkIndex="11" dir="t" state="o"/>
    <connection from="W_J1" to="J1_S1" fromLane="0" toLane="0" via=":J1_12_0" tl="J1" linkIndex="12" dir="r" state="o"/>
    <connection from="W_J1" to="J1_J2" fromLane="0" toLane="0" via=":J1_13_0" tl="J1" linkIndex="13" dir="s" state="o"/>
    <connection from="W_J1" to="J1_N1" fromLane="0" toLane="0" via=":J1_14_0" tl="J1" linkIndex="14" dir="l" state="o"/>
    <connection from="W_J1" to="J1_W" fromLane="0" toLane="0" via=":J1_15_0" tl="J1" linkIndex="15" dir="t" state="o"/>

    <connection from=":E_0" to="E_J2" fromLane="0" toLane="0" dir="t" state="M"/>
    <connection from=":J1_0" to="J1_W" fromLane="0" toLane="0" dir="r" state="M"/>
    <connection from=":J1_1" to="J1_S1" fromLane="0" toLane="0" dir="s" state="M"/>
    <connection from=":J1_2" to="J1_J2" fromLane="0" toLane="0" via=":J1_16_0" dir="l" state="m"/>
    <connection from=":J1_16" to="J1_J2" fromLane="0" toLane="0" dir="l" state="M"/>
    <connection from=":J1_3" to="J1_N1" fromLane="0" toLane="0" via=":J1_17_0" dir="t" state="m"/>
    <connection from=":J1_17" to="J1_N1" fromLane="0" toLane="0" dir="t" state="M"/>
    <connection from=":J1_4" to="J1_N1" fromLane="0" toLane="0" dir="r" state="M"/>
    <connection from=":J1_5" to="J1_W" fromLane="0" toLane="0" dir="s" state="M"/>
    <connection from=":J1_6" to="J1_S1" fromLane="0" toLane="0" via=":J1_18_0" dir="l" state="m"/>
    <connection from=":J1_18" to="J1_S1" fromLane="0" toLane="0" dir="l" state="M"/>
    <connection from=":J1_7" to="J1_J2" fromLane="0" toLane="0" via=":J1_19_0" dir="t" state="m"/>
    <connection from=":J1_19" to="J1_J2" fromLane="0" toLane="0" dir="t" state="M"/>
    <connection from=":J1_8" to="J1_J2" fromLane="0" toLane="0" dir="r" state="M"/>
    <connection from=":J1_9" to="J1_N1" fromLane="0" toLane="0" dir="s" state="M"/>
    <connection from=":J1_10" to="J1_W" fromLane="0" toLane="0" via=":J1_20_0" dir="l" state="m"/>
    <connection from=":J1_20" to="J1_W" fromLane="0" toLane="0" dir="l" state="M"/>
    <connection from=":J1_11" to="J1_S1" fromLane="0" toLane="0" via=":J1_21_0" dir="t" state="m"/>
    <connection from=":J1_21" to="J1_S1" fromLane="0" toLane="0" dir="t" state="M"/>
    <connection from=":J1_12" to="J1_S1" fromLane="0" toLane="0" dir="r" state="M"/>
    <connection from=":J1_13" to="J1_J2" fromLane="0" toLane="0" dir="s" state="M"/>
    <connection from=":J1_14" to="J1_N1" fromLane="0" toLane="0" via=":J1_22_0" dir="l" state="m"/>
    <connection from=":J1_22" to="J1_N1" fromLane="0" toLane="0" dir="l" state="M"/>
    <connection from=":J1_15" to="J1_W" fromLane="0" toLane="0" via=":J1_23_0" dir="t" state="m"/>
    <connection from=":J1_23" to="J1_W" fromLane="0" toLane="0" dir="t" state="M"/>
    <connection from=":J2_0" to="J2_J1" fromLane="0" toLane="0" dir="r" state="M"/>
    <connection from=":J2_1" to="J2_S2" fromLane="0" toLane="0" dir="s" state="M"/>
    <connection from=":J2_2" to="J2_E" fromLane="0" toLane="0" via=":J2_16_0" dir="l" state="m"/>
    <connection from=":J2_16" to="J2_E" fromLane="0" toLane="0" dir="l" state="M"/>
    <connection from=":J2_3" to="J2_N2" fromLane="0" toLane="0" via=":J2_17_0" dir="t" state="m"/>
    <connection from=":J2_17" to="J2_N2" fromLane="0" toLane="0" dir="t" state="M"/>
    <connection from=":J2_4" to="J2_N2" fromLane="0" toLane="0" dir="r" state="M"/>
    <connection from=":J2_5" to="J2_J1" fromLane="0" toLane="0" dir="s" state="M"/>
    <connection from=":J2_6" to="J2_S2" fromLane="0" toLane="0" via=":J2_18_0" dir="l" state="m"/>
    <connection from=":J2_18" to="J2_S2" fromLane="0" toLane="0" dir="l" state="M"/>
    <connection from=":J2_7" to="J2_E" fromLane="0" toLane="0" via=":J2_19_0" dir="t" state="m"/>
    <connection from=":J2_19" to="J2_E" fromLane="0" toLane="0" dir="t" state="M"/>
    <connection from=":J2_8" to="J2_E" fromLane="0" toLane="0" dir="r" state="M"/>
    <connection from=":J2_9" to="J2_N2" fromLane="0" toLane="0" dir="s" state="M"/>
    <connection from=":J2_10" to="J2_J1" fromLane="0" toLane="0" via=":J2_20_0" dir="l" state="m"/>
    <connection from=":J2_20" to="J2_J1" fromLane="0" toLane="0" dir="l" state="M"/>
    <connection from=":J2_11" to="J2_S2" fromLane="0" toLane="0" via=":J2_21_0" dir="t" state="m"/>
    <connection from=":J2_21" to="J2_S2" fromLane="0" toLane="0" dir="t" state="M"/>
    <connection from=":J2_12" to="J2_S2" fromLane="0" toLane="0" dir="r" state="M"/>
    <connection from=":J2_13" to="J2_E" fromLane="0" toLane="0" dir="s" state="M"/>
    <connection from=":J2_14" to="J2_N2" fromLane="0" toLane="0" via=":J2_22_0" dir="l" state="m"/>
    <connection from=":J2_22" to="J2_N2" fromLane="0" toLane="0" dir="l" state="M"/>
    <connection from=":J2_15" to="J2_J1" fromLane="0" toLane="0" via=":J2_23_0" dir="t" state="m"/>